13U
  CCTOOLS-0919241032

 65 67  0  0  1  0  0  0  0  0999 V2000
   -1.6670    0.6990   -0.1850 C   0  0  0  0  0
   -1.0040   -0.2870    0.0570 O   0  0  0  0  0
   -3.1690    0.5990   -0.2550 C   0  0  0  0  0
   -3.5800   -0.7870    0.0040 N   0  0  0  0  0
   -5.0410   -0.9230   -0.0570 C   0  0  0  0  0
   -5.4770   -2.1230    0.7860 C   0  0  0  0  0
   -6.5540   -1.6840    1.7800 C   0  0  0  0  0
   -7.8850   -1.5120    1.0460 C   0  0  0  0  0
   -7.8620   -0.2070    0.2480 C   0  0  0  0  0
   -7.8820   -0.5230   -1.2490 C   0  0  0  0  0
   -6.9080   -1.6660   -1.5410 C   0  0  0  0  0
   -5.4740   -1.1350   -1.5090 C   0  0  0  0  0
   -1.0600    1.8850   -0.3910 N   0  0  0  0  0
    0.3970    2.1070   -0.4450 C   0  0  0  0  0
    1.0990    1.2280    0.5570 C   0  0  0  0  0
    0.5300    0.8960    1.5760 O   0  0  0  0  0
    0.5840    3.6000   -0.0780 C   0  0  0  0  0
   -0.6470    4.2470   -0.7660 C   0  0  0  0  0
   -1.7410    3.1710   -0.6000 C   0  0  0  0  0
    2.3570    0.8070    0.3200 N   0  0  0  0  0
    3.0370   -0.0520    1.2920 C   0  0  0  0  0
    4.4210   -0.3790    0.7920 C   0  0  0  0  0
    4.6240   -1.5030    0.0110 C   0  0  0  0  0
    5.8880   -1.8030   -0.4550 C   0  0  0  0  0
    6.9630   -0.9780   -0.1270 C   0  0  0  0  0
    8.3230   -1.2990   -0.6190 C   0  0  0  0  0
    9.3250   -0.5270   -0.3110 N   0  0  0  0  0
    8.5270   -2.4140   -1.4010 N   0  0  0  0  0
    6.7530    0.1500    0.6650 C   0  0  0  0  0
    5.4840    0.4430    1.1200 C   0  0  0  0  0
   -3.6120    1.2560    0.4930 H   0  0  0  0  0
   -3.5070    0.8990   -1.2470 H   0  0  0  0  0
   -3.1300   -1.4230   -0.6380 H   0  0  0  0  0
   -5.5060   -0.0180    0.3320 H   0  0  0  0  0
   -5.8790   -2.8980    0.1340 H   0  0  0  0  0
   -4.6180   -2.5160    1.3300 H   0  0  0  0  0
   -6.6620   -2.4410    2.5560 H   0  0  0  0  0
   -6.2640   -0.7370    2.2350 H   0  0  0  0  0
   -8.0360   -2.3510    0.3660 H   0  0  0  0  0
   -8.6980   -1.4800    1.7710 H   0  0  0  0  0
   -8.7360    0.3910    0.5040 H   0  0  0  0  0
   -6.9570    0.3510    0.4890 H   0  0  0  0  0
   -8.8890   -0.8190   -1.5440 H   0  0  0  0  0
   -7.5840    0.3620   -1.8110 H   0  0  0  0  0
   -7.0240   -2.4440   -0.7870 H   0  0  0  0  0
   -7.1200   -2.0810   -2.5270 H   0  0  0  0  0
   -5.4250   -0.1860   -2.0440 H   0  0  0  0  0
   -4.8080   -1.8550   -1.9850 H   0  0  0  0  0
    0.7740    1.9130   -1.4490 H   0  0  0  0  0
    0.5490    3.7440    1.0020 H   0  0  0  0  0
    1.5130    3.9910   -0.4930 H   0  0  0  0  0
   -0.9320    5.1690   -0.2590 H   0  0  0  0  0
   -0.4460    4.4330   -1.8210 H   0  0  0  0  0
   -2.3630    3.4060    0.2640 H   0  0  0  0  0
   -2.3540    3.1240   -1.4990 H   0  0  0  0  0
    2.8120    1.0720   -0.4950 H   0  0  0  0  0
    3.1090    0.4660    2.2480 H   0  0  0  0  0
    2.4710   -0.9750    1.4210 H   0  0  0  0  0
    3.7910   -2.1430   -0.2390 H   0  0  0  0  0
    6.0440   -2.6780   -1.0690 H   0  0  0  0  0
   10.2160   -0.7370   -0.6330 H   0  0  0  0  0
    7.7800   -2.9890   -1.6310 H   0  0  0  0  0
    9.4180   -2.6240   -1.7230 H   0  0  0  0  0
    7.5820    0.7930    0.9220 H   0  0  0  0  0
    5.3200    1.3160    1.7340 H   0  0  0  0  0
  1  2  2  0  0  0
  1  3  1  0  0  0
  3  4  1  0  0  0
  3 31  1  0  0  0
  3 32  1  0  0  0
  4  5  1  0  0  0
  4 33  1  0  0  0
  5  6  1  0  0  0
  5 12  1  0  0  0
  5 34  1  0  0  0
  6  7  1  0  0  0
  6 35  1  0  0  0
  6 36  1  0  0  0
  7  8  1  0  0  0
  7 37  1  0  0  0
  7 38  1  0  0  0
  8  9  1  0  0  0
  8 39  1  0  0  0
  8 40  1  0  0  0
  9 10  1  0  0  0
  9 41  1  0  0  0
  9 42  1  0  0  0
 10 11  1  0  0  0
 10 43  1  0  0  0
 10 44  1  0  0  0
 11 12  1  0  0  0
 11 45  1  0  0  0
 11 46  1  0  0  0
 12 47  1  0  0  0
 12 48  1  0  0  0
 13  1  1  0  0  0
 14 17  1  0  0  0
 14 13  1  0  0  0
 14 49  1  0  0  0
 15 20  1  0  0  0
 15 14  1  0  0  0
 16 15  2  0  0  0
 17 18  1  0  0  0
 17 50  1  0  0  0
 17 51  1  0  0  0
 18 19  1  0  0  0
 18 52  1  0  0  0
 18 53  1  0  0  0
 19 13  1  0  0  0
 19 54  1  0  0  0
 19 55  1  0  0  0
 20 21  1  0  0  0
 20 56  1  0  0  0
 21 22  1  0  0  0
 21 57  1  0  0  0
 21 58  1  0  0  0
 22 30  2  0  0  0
 22 23  1  0  0  0
 23 59  1  0  0  0
 24 23  2  0  0  0
 24 60  1  0  0  0
 25 26  1  0  0  0
 25 24  1  0  0  0
 26 27  2  0  0  0
 26 28  1  0  0  0
 27 61  1  0  0  0
 28 62  1  0  0  0
 28 63  1  0  0  0
 29 25  2  0  0  0
 29 64  1  0  0  0
 30 29  1  0  0  0
 30 65  1  0  0  0
M  END
$$$$
