MODEL 1
REMARK VINA RESULT:    -7.802      0.000      0.000
REMARK INTER + INTRA:         -12.100
REMARK INTER:                 -10.995
REMARK INTRA:                  -1.105
REMARK UNBOUND:                -1.105
REMARK  Name = 13U
REMARK  7 active torsions:
REMARK  status: ('A' for Active; 'I' for Inactive)
REMARK    1  A    between atoms: C_1  and  C_3
REMARK    2  A    between atoms: C_3  and  N_4
REMARK    3  A    between atoms: N_4  and  C_5
REMARK    4  A    between atoms: C_14  and  C_15
REMARK    5  A    between atoms: N_20  and  C_21
REMARK    6  A    between atoms: C_21  and  C_22
REMARK    7  A    between atoms: C_25  and  C_26
REMARK                            x       y       z     vdW  Elec       q    Type
REMARK                         _______ _______ _______ _____ _____    ______ ____
ROOT
ATOM      1  C   UNL     1      16.837 -10.415  13.434  0.00  0.00    +0.000 C 
ATOM      2  O   UNL     1      17.213  -9.337  13.024  0.00  0.00    +0.000 OA
ATOM      3  N   UNL     1      15.728 -10.496  14.197  0.00  0.00    +0.000 N 
ATOM      4  C   UNL     1      14.829  -9.375  14.529  0.00  0.00    +0.000 C 
ATOM      5  C   UNL     1      14.136  -9.800  15.847  0.00  0.00    +0.000 C 
ATOM      6  C   UNL     1      13.947 -11.324  15.623  0.00  0.00    +0.000 C 
ATOM      7  C   UNL     1      15.214 -11.717  14.835  0.00  0.00    +0.000 C 
ENDROOT
BRANCH   4   8
ATOM      8  C   UNL     1      15.622  -8.111  14.738  0.00  0.00    +0.000 C 
ATOM      9  O   UNL     1      16.275  -7.964  15.750  0.00  0.00    +0.000 OA
ATOM     10  N   UNL     1      15.610  -7.145  13.798  0.00  0.00    +0.000 N 
ATOM     11  H   UNL     1      15.080  -7.263  12.977  0.00  0.00    +0.000 HD
BRANCH  10  12
ATOM     12  C   UNL     1      16.386  -5.919  13.998  0.00  0.00    +0.000 C 
BRANCH  12  13
ATOM     13  C   UNL     1      16.800  -5.362  12.660  0.00  0.00    +0.000 A 
ATOM     14  C   UNL     1      16.423  -4.080  12.300  0.00  0.00    +0.000 A 
ATOM     15  C   UNL     1      16.806  -3.563  11.079  0.00  0.00    +0.000 A 
ATOM     16  C   UNL     1      17.564  -4.340  10.203  0.00  0.00    +0.000 A 
ATOM     17  C   UNL     1      17.935  -5.633  10.569  0.00  0.00    +0.000 A 
ATOM     18  C   UNL     1      17.552  -6.136  11.795  0.00  0.00    +0.000 A 
BRANCH  16  19
ATOM     19  C   UNL     1      17.972  -3.793   8.888  0.00  0.00    +0.000 C 
ATOM     20  N   UNL     1      17.268  -2.850   8.330  0.00  0.00    +0.000 NA
ATOM     21  N   UNL     1      19.095  -4.280   8.258  0.00  0.00    +0.000 N 
ATOM     22  H   UNL     1      16.435  -2.541   8.753  0.00  0.00    +0.000 HD
ATOM     23  H   UNL     1      19.595  -5.030   8.655  0.00  0.00    +0.000 HD
ATOM     24  H   UNL     1      19.397  -3.879   7.412  0.00  0.00    +0.000 HD
ENDBRANCH  16  19
ENDBRANCH  12  13
ENDBRANCH  10  12
ENDBRANCH   4   8
BRANCH   1  25
ATOM     25  C   UNL     1      17.609 -11.663  13.092  0.00  0.00    +0.000 C 
BRANCH  25  26
ATOM     26  N   UNL     1      18.208 -11.517  11.759  0.00  0.00    +0.000 N 
ATOM     27  H   UNL     1      19.207 -11.338  11.859  0.00  0.00    +0.000 HD
ATOM     28  H   UNL     1      17.751 -10.741  11.280  0.00  0.00    +0.000 HD
BRANCH  26  29
ATOM     29  C   UNL     1      18.017 -12.735  10.960  0.00  0.00    +0.000 C 
ATOM     30  C   UNL     1      16.546 -13.154  11.011  0.00  0.00    +0.000 C 
ATOM     31  C   UNL     1      16.017 -13.330   9.587  0.00  0.00    +0.000 C 
ATOM     32  C   UNL     1      16.538 -14.648   9.009  0.00  0.00    +0.000 C 
ATOM     33  C   UNL     1      18.007 -14.485   8.615  0.00  0.00    +0.000 C 
ATOM     34  C   UNL     1      18.879 -15.352   9.525  0.00  0.00    +0.000 C 
ATOM     35  C   UNL     1      18.410 -15.202  10.973  0.00  0.00    +0.000 C 
ATOM     36  C   UNL     1      18.887 -13.859  11.527  0.00  0.00    +0.000 C 
ENDBRANCH  26  29
ENDBRANCH  25  26
ENDBRANCH   1  25
TORSDOF 7
ENDMDL
MODEL 2
REMARK VINA RESULT:    -7.632      0.820      1.752
REMARK INTER + INTRA:         -11.860
REMARK INTER:                 -10.876
REMARK INTRA:                  -0.984
REMARK UNBOUND:                -1.105
REMARK  Name = 13U
REMARK  7 active torsions:
REMARK  status: ('A' for Active; 'I' for Inactive)
REMARK    1  A    between atoms: C_1  and  C_3
REMARK    2  A    between atoms: C_3  and  N_4
REMARK    3  A    between atoms: N_4  and  C_5
REMARK    4  A    between atoms: C_14  and  C_15
REMARK    5  A    between atoms: N_20  and  C_21
REMARK    6  A    between atoms: C_21  and  C_22
REMARK    7  A    between atoms: C_25  and  C_26
REMARK                            x       y       z     vdW  Elec       q    Type
REMARK                         _______ _______ _______ _____ _____    ______ ____
ROOT
ATOM      1  C   UNL     1      16.530 -10.475  13.677  0.00  0.00    +0.000 C 
ATOM      2  O   UNL     1      17.003  -9.445  13.244  0.00  0.00    +0.000 OA
ATOM      3  N   UNL     1      15.415 -10.438  14.433  0.00  0.00    +0.000 N 
ATOM      4  C   UNL     1      14.619  -9.234  14.733  0.00  0.00    +0.000 C 
ATOM      5  C   UNL     1      13.883  -9.564  16.055  0.00  0.00    +0.000 C 
ATOM      6  C   UNL     1      13.559 -11.069  15.865  0.00  0.00    +0.000 C 
ATOM      7  C   UNL     1      14.791 -11.593  15.095  0.00  0.00    +0.000 C 
ENDROOT
BRANCH   4   8
ATOM      8  C   UNL     1      15.520  -8.041  14.917  0.00  0.00    +0.000 C 
ATOM      9  O   UNL     1      16.167  -7.921  15.937  0.00  0.00    +0.000 OA
ATOM     10  N   UNL     1      15.613  -7.109  13.948  0.00  0.00    +0.000 N 
ATOM     11  H   UNL     1      15.088  -7.206  13.121  0.00  0.00    +0.000 HD
BRANCH  10  12
ATOM     12  C   UNL     1      16.494  -5.953  14.125  0.00  0.00    +0.000 C 
BRANCH  12  13
ATOM     13  C   UNL     1      16.881  -5.405  12.775  0.00  0.00    +0.000 A 
ATOM     14  C   UNL     1      17.587  -6.196  11.887  0.00  0.00    +0.000 A 
ATOM     15  C   UNL     1      17.938  -5.701  10.647  0.00  0.00    +0.000 A 
ATOM     16  C   UNL     1      17.591  -4.397  10.296  0.00  0.00    +0.000 A 
ATOM     17  C   UNL     1      16.885  -3.603  11.198  0.00  0.00    +0.000 A 
ATOM     18  C   UNL     1      16.534  -4.110  12.432  0.00  0.00    +0.000 A 
BRANCH  16  19
ATOM     19  C   UNL     1      17.971  -3.858   8.970  0.00  0.00    +0.000 C 
ATOM     20  N   UNL     1      19.022  -4.321   8.357  0.00  0.00    +0.000 NA
ATOM     21  N   UNL     1      17.213  -2.869   8.385  0.00  0.00    +0.000 N 
ATOM     22  H   UNL     1      19.596  -4.989   8.799  0.00  0.00    +0.000 HD
ATOM     23  H   UNL     1      16.450  -2.481   8.873  0.00  0.00    +0.000 HD
ATOM     24  H   UNL     1      17.432  -2.550   7.481  0.00  0.00    +0.000 HD
ENDBRANCH  16  19
ENDBRANCH  12  13
ENDBRANCH  10  12
ENDBRANCH   4   8
BRANCH   1  25
ATOM     25  C   UNL     1      17.189 -11.795  13.369  0.00  0.00    +0.000 C 
BRANCH  25  26
ATOM     26  N   UNL     1      16.404 -12.509  12.354  0.00  0.00    +0.000 N 
ATOM     27  H   UNL     1      15.688 -11.883  11.983  0.00  0.00    +0.000 HD
ATOM     28  H   UNL     1      15.974 -13.324  12.789  0.00  0.00    +0.000 HD
BRANCH  26  29
ATOM     29  C   UNL     1      17.260 -12.965  11.251  0.00  0.00    +0.000 C 
ATOM     30  C   UNL     1      17.877 -11.753  10.550  0.00  0.00    +0.000 C 
ATOM     31  C   UNL     1      19.396 -11.923  10.481  0.00  0.00    +0.000 C 
ATOM     32  C   UNL     1      19.747 -12.935   9.390  0.00  0.00    +0.000 C 
ATOM     33  C   UNL     1      19.451 -14.350   9.892  0.00  0.00    +0.000 C 
ATOM     34  C   UNL     1      18.291 -14.944   9.090  0.00  0.00    +0.000 C 
ATOM     35  C   UNL     1      17.189 -13.894   8.933  0.00  0.00    +0.000 C 
ATOM     36  C   UNL     1      16.421 -13.761  10.249  0.00  0.00    +0.000 C 
ENDBRANCH  26  29
ENDBRANCH  25  26
ENDBRANCH   1  25
TORSDOF 7
ENDMDL
MODEL 3
REMARK VINA RESULT:    -7.039      1.452      1.952
REMARK INTER + INTRA:         -11.024
REMARK INTER:                  -9.878
REMARK INTRA:                  -1.146
REMARK UNBOUND:                -1.105
REMARK  Name = 13U
REMARK  7 active torsions:
REMARK  status: ('A' for Active; 'I' for Inactive)
REMARK    1  A    between atoms: C_1  and  C_3
REMARK    2  A    between atoms: C_3  and  N_4
REMARK    3  A    between atoms: N_4  and  C_5
REMARK    4  A    between atoms: C_14  and  C_15
REMARK    5  A    between atoms: N_20  and  C_21
REMARK    6  A    between atoms: C_21  and  C_22
REMARK    7  A    between atoms: C_25  and  C_26
REMARK                            x       y       z     vdW  Elec       q    Type
REMARK                         _______ _______ _______ _____ _____    ______ ____
ROOT
ATOM      1  C   UNL     1      17.886  -9.943  12.873  0.00  0.00    +0.000 C 
ATOM      2  O   UNL     1      16.805  -9.529  12.511  0.00  0.00    +0.000 OA
ATOM      3  N   UNL     1      18.229  -9.878  14.176  0.00  0.00    +0.000 N 
ATOM      4  C   UNL     1      17.357  -9.419  15.273  0.00  0.00    +0.000 C 
ATOM      5  C   UNL     1      18.330  -8.948  16.382  0.00  0.00    +0.000 C 
ATOM      6  C   UNL     1      19.474  -9.989  16.256  0.00  0.00    +0.000 C 
ATOM      7  C   UNL     1      19.535 -10.254  14.737  0.00  0.00    +0.000 C 
ENDROOT
BRANCH   4   8
ATOM      8  C   UNL     1      16.492  -8.275  14.812  0.00  0.00    +0.000 C 
ATOM      9  O   UNL     1      15.284  -8.380  14.836  0.00  0.00    +0.000 OA
ATOM     10  N   UNL     1      17.061  -7.133  14.378  0.00  0.00    +0.000 N 
ATOM     11  H   UNL     1      18.041  -7.047  14.357  0.00  0.00    +0.000 HD
BRANCH  10  12
ATOM     12  C   UNL     1      16.219  -6.019  13.935  0.00  0.00    +0.000 C 
BRANCH  12  13
ATOM     13  C   UNL     1      16.748  -5.477  12.631  0.00  0.00    +0.000 A 
ATOM     14  C   UNL     1      16.477  -4.170  12.267  0.00  0.00    +0.000 A 
ATOM     15  C   UNL     1      16.965  -3.667  11.078  0.00  0.00    +0.000 A 
ATOM     16  C   UNL     1      17.720  -4.483  10.237  0.00  0.00    +0.000 A 
ATOM     17  C   UNL     1      17.984  -5.802  10.606  0.00  0.00    +0.000 A 
ATOM     18  C   UNL     1      17.497  -6.291  11.800  0.00  0.00    +0.000 A 
BRANCH  16  19
ATOM     19  C   UNL     1      18.240  -3.951   8.956  0.00  0.00    +0.000 C 
ATOM     20  N   UNL     1      19.382  -4.370   8.493  0.00  0.00    +0.000 NA
ATOM     21  N   UNL     1      17.514  -3.014   8.254  0.00  0.00    +0.000 N 
ATOM     22  H   UNL     1      19.927  -4.997   9.022  0.00  0.00    +0.000 HD
ATOM     23  H   UNL     1      16.677  -2.657   8.631  0.00  0.00    +0.000 HD
ATOM     24  H   UNL     1      17.832  -2.701   7.377  0.00  0.00    +0.000 HD
ENDBRANCH  16  19
ENDBRANCH  12  13
ENDBRANCH  10  12
ENDBRANCH   4   8
BRANCH   1  25
ATOM     25  C   UNL     1      18.845 -10.528  11.869  0.00  0.00    +0.000 C 
BRANCH  25  26
ATOM     26  N   UNL     1      18.153 -10.726  10.589  0.00  0.00    +0.000 N 
ATOM     27  H   UNL     1      18.664 -10.235   9.854  0.00  0.00    +0.000 HD
ATOM     28  H   UNL     1      17.206 -10.358  10.671  0.00  0.00    +0.000 HD
BRANCH  26  29
ATOM     29  C   UNL     1      18.073 -12.152  10.248  0.00  0.00    +0.000 C 
ATOM     30  C   UNL     1      16.725 -12.711  10.708  0.00  0.00    +0.000 C 
ATOM     31  C   UNL     1      16.036 -13.411   9.535  0.00  0.00    +0.000 C 
ATOM     32  C   UNL     1      16.698 -14.768   9.292  0.00  0.00    +0.000 C 
ATOM     33  C   UNL     1      18.041 -14.562   8.589  0.00  0.00    +0.000 C 
ATOM     34  C   UNL     1      19.178 -14.965   9.530  0.00  0.00    +0.000 C 
ATOM     35  C   UNL     1      18.903 -14.408  10.928  0.00  0.00    +0.000 C 
ATOM     36  C   UNL     1      19.205 -12.908  10.947  0.00  0.00    +0.000 C 
ENDBRANCH  26  29
ENDBRANCH  25  26
ENDBRANCH   1  25
TORSDOF 7
ENDMDL
MODEL 4
REMARK VINA RESULT:    -6.809      1.784      2.732
REMARK INTER + INTRA:         -10.701
REMARK INTER:                  -9.654
REMARK INTRA:                  -1.047
REMARK UNBOUND:                -1.105
REMARK  Name = 13U
REMARK  7 active torsions:
REMARK  status: ('A' for Active; 'I' for Inactive)
REMARK    1  A    between atoms: C_1  and  C_3
REMARK    2  A    between atoms: C_3  and  N_4
REMARK    3  A    between atoms: N_4  and  C_5
REMARK    4  A    between atoms: C_14  and  C_15
REMARK    5  A    between atoms: N_20  and  C_21
REMARK    6  A    between atoms: C_21  and  C_22
REMARK    7  A    between atoms: C_25  and  C_26
REMARK                            x       y       z     vdW  Elec       q    Type
REMARK                         _______ _______ _______ _____ _____    ______ ____
ROOT
ATOM      1  C   UNL     1      17.144 -11.828  14.391  0.00  0.00    +0.000 C 
ATOM      2  O   UNL     1      16.092 -11.317  14.711  0.00  0.00    +0.000 OA
ATOM      3  N   UNL     1      18.307 -11.306  14.829  0.00  0.00    +0.000 N 
ATOM      4  C   UNL     1      18.443 -10.181  15.773  0.00  0.00    +0.000 C 
ATOM      5  C   UNL     1      19.841  -9.583  15.478  0.00  0.00    +0.000 C 
ATOM      6  C   UNL     1      20.668 -10.859  15.171  0.00  0.00    +0.000 C 
ATOM      7  C   UNL     1      19.650 -11.765  14.446  0.00  0.00    +0.000 C 
ENDROOT
BRANCH   4   8
ATOM      8  C   UNL     1      17.369  -9.155  15.524  0.00  0.00    +0.000 C 
ATOM      9  O   UNL     1      16.609  -8.843  16.417  0.00  0.00    +0.000 OA
ATOM     10  N   UNL     1      17.255  -8.580  14.311  0.00  0.00    +0.000 N 
ATOM     11  H   UNL     1      17.870  -8.833  13.586  0.00  0.00    +0.000 HD
BRANCH  10  12
ATOM     12  C   UNL     1      16.214  -7.578  14.071  0.00  0.00    +0.000 C 
BRANCH  12  13
ATOM     13  C   UNL     1      16.640  -6.671  12.945  0.00  0.00    +0.000 A 
ATOM     14  C   UNL     1      16.115  -5.394  12.852  0.00  0.00    +0.000 A 
ATOM     15  C   UNL     1      16.507  -4.557  11.827  0.00  0.00    +0.000 A 
ATOM     16  C   UNL     1      17.423  -5.005  10.877  0.00  0.00    +0.000 A 
ATOM     17  C   UNL     1      17.944  -6.294  10.972  0.00  0.00    +0.000 A 
ATOM     18  C   UNL     1      17.550  -7.120  12.005  0.00  0.00    +0.000 A 
BRANCH  16  19
ATOM     19  C   UNL     1      17.843  -4.113   9.771  0.00  0.00    +0.000 C 
ATOM     20  N   UNL     1      19.104  -3.999   9.469  0.00  0.00    +0.000 NA
ATOM     21  N   UNL     1      16.898  -3.404   9.062  0.00  0.00    +0.000 N 
ATOM     22  H   UNL     1      19.783  -4.462  10.012  0.00  0.00    +0.000 HD
ATOM     23  H   UNL     1      15.950  -3.448   9.325  0.00  0.00    +0.000 HD
ATOM     24  H   UNL     1      17.170  -2.855   8.292  0.00  0.00    +0.000 HD
ENDBRANCH  16  19
ENDBRANCH  12  13
ENDBRANCH  10  12
ENDBRANCH   4   8
BRANCH   1  25
ATOM     25  C   UNL     1      17.151 -13.046  13.503  0.00  0.00    +0.000 C 
BRANCH  25  26
ATOM     26  N   UNL     1      16.390 -12.764  12.279  0.00  0.00    +0.000 N 
ATOM     27  H   UNL     1      16.294 -11.754  12.171  0.00  0.00    +0.000 HD
ATOM     28  H   UNL     1      15.474 -13.204  12.358  0.00  0.00    +0.000 HD
BRANCH  26  29
ATOM     29  C   UNL     1      17.072 -13.310  11.098  0.00  0.00    +0.000 C 
ATOM     30  C   UNL     1      17.912 -12.212  10.442  0.00  0.00    +0.000 C 
ATOM     31  C   UNL     1      19.350 -12.705  10.269  0.00  0.00    +0.000 C 
ATOM     32  C   UNL     1      19.416 -13.681   9.093  0.00  0.00    +0.000 C 
ATOM     33  C   UNL     1      18.834 -15.031   9.519  0.00  0.00    +0.000 C 
ATOM     34  C   UNL     1      17.536 -15.292   8.752  0.00  0.00    +0.000 C 
ATOM     35  C   UNL     1      16.691 -14.018   8.733  0.00  0.00    +0.000 C 
ATOM     36  C   UNL     1      16.032 -13.822  10.100  0.00  0.00    +0.000 C 
ENDBRANCH  26  29
ENDBRANCH  25  26
ENDBRANCH   1  25
TORSDOF 7
ENDMDL
MODEL 5
REMARK VINA RESULT:    -6.301      2.164      3.445
REMARK INTER + INTRA:          -9.984
REMARK INTER:                  -8.831
REMARK INTRA:                  -1.153
REMARK UNBOUND:                -1.105
REMARK  Name = 13U
REMARK  7 active torsions:
REMARK  status: ('A' for Active; 'I' for Inactive)
REMARK    1  A    between atoms: C_1  and  C_3
REMARK    2  A    between atoms: C_3  and  N_4
REMARK    3  A    between atoms: N_4  and  C_5
REMARK    4  A    between atoms: C_14  and  C_15
REMARK    5  A    between atoms: N_20  and  C_21
REMARK    6  A    between atoms: C_21  and  C_22
REMARK    7  A    between atoms: C_25  and  C_26
REMARK                            x       y       z     vdW  Elec       q    Type
REMARK                         _______ _______ _______ _____ _____    ______ ____
ROOT
ATOM      1  C   UNL     1      16.437 -12.316  14.314  0.00  0.00    +0.000 C 
ATOM      2  O   UNL     1      16.135 -11.146  14.206  0.00  0.00    +0.000 OA
ATOM      3  N   UNL     1      16.096 -12.999  15.425  0.00  0.00    +0.000 N 
ATOM      4  C   UNL     1      15.279 -12.479  16.537  0.00  0.00    +0.000 C 
ATOM      5  C   UNL     1      15.683 -13.337  17.761  0.00  0.00    +0.000 C 
ATOM      6  C   UNL     1      15.884 -14.732  17.111  0.00  0.00    +0.000 C 
ATOM      7  C   UNL     1      16.476 -14.386  15.728  0.00  0.00    +0.000 C 
ENDROOT
BRANCH   4   8
ATOM      8  C   UNL     1      15.596 -11.027  16.787  0.00  0.00    +0.000 C 
ATOM      9  O   UNL     1      16.630 -10.719  17.342  0.00  0.00    +0.000 OA
ATOM     10  N   UNL     1      14.733 -10.071  16.390  0.00  0.00    +0.000 N 
ATOM     11  H   UNL     1      13.894 -10.321  15.940  0.00  0.00    +0.000 HD
BRANCH  10  12
ATOM     12  C   UNL     1      15.045  -8.660  16.627  0.00  0.00    +0.000 C 
BRANCH  12  13
ATOM     13  C   UNL     1      15.629  -8.056  15.376  0.00  0.00    +0.000 A 
ATOM     14  C   UNL     1      14.950  -8.166  14.175  0.00  0.00    +0.000 A 
ATOM     15  C   UNL     1      15.477  -7.609  13.028  0.00  0.00    +0.000 A 
ATOM     16  C   UNL     1      16.703  -6.946  13.078  0.00  0.00    +0.000 A 
ATOM     17  C   UNL     1      17.385  -6.843  14.289  0.00  0.00    +0.000 A 
ATOM     18  C   UNL     1      16.845  -7.399  15.431  0.00  0.00    +0.000 A 
BRANCH  16  19
ATOM     19  C   UNL     1      17.277  -6.352  11.848  0.00  0.00    +0.000 C 
ATOM     20  N   UNL     1      18.261  -6.947  11.237  0.00  0.00    +0.000 NA
ATOM     21  N   UNL     1      16.769  -5.172  11.351  0.00  0.00    +0.000 N 
ATOM     22  H   UNL     1      18.660  -7.760  11.623  0.00  0.00    +0.000 HD
ATOM     23  H   UNL     1      16.063  -4.695  11.843  0.00  0.00    +0.000 HD
ATOM     24  H   UNL     1      17.113  -4.807  10.505  0.00  0.00    +0.000 HD
ENDBRANCH  16  19
ENDBRANCH  12  13
ENDBRANCH  10  12
ENDBRANCH   4   8
BRANCH   1  25
ATOM     25  C   UNL     1      17.193 -13.005  13.208  0.00  0.00    +0.000 C 
BRANCH  25  26
ATOM     26  N   UNL     1      16.378 -13.010  11.986  0.00  0.00    +0.000 N 
ATOM     27  H   UNL     1      16.088 -12.054  11.775  0.00  0.00    +0.000 HD
ATOM     28  H   UNL     1      15.564 -13.604  12.141  0.00  0.00    +0.000 HD
BRANCH  26  29
ATOM     29  C   UNL     1      17.138 -13.543  10.849  0.00  0.00    +0.000 C 
ATOM     30  C   UNL     1      17.956 -12.420  10.210  0.00  0.00    +0.000 C 
ATOM     31  C   UNL     1      19.421 -12.847  10.112  0.00  0.00    +0.000 C 
ATOM     32  C   UNL     1      19.586 -13.840   8.960  0.00  0.00    +0.000 C 
ATOM     33  C   UNL     1      19.048 -15.208   9.385  0.00  0.00    +0.000 C 
ATOM     34  C   UNL     1      17.800 -15.543   8.565  0.00  0.00    +0.000 C 
ATOM     35  C   UNL     1      16.899 -14.310   8.483  0.00  0.00    +0.000 C 
ATOM     36  C   UNL     1      16.170 -14.122   9.815  0.00  0.00    +0.000 C 
ENDBRANCH  26  29
ENDBRANCH  25  26
ENDBRANCH   1  25
TORSDOF 7
ENDMDL
